Version 4
SHEET 1 880 680
WIRE -368 80 -480 80
WIRE -192 80 -192 0
WIRE -192 80 -240 80
WIRE -176 80 -192 80
WIRE 0 80 0 0
WIRE 0 80 -32 80
WIRE 32 80 0 80
WIRE 208 80 208 0
WIRE 208 80 176 80
WIRE 240 80 208 80
WIRE 432 80 384 80
WIRE -480 112 -480 80
WIRE -480 240 -480 192
FLAG -480 240 0
FLAG 432 80 out_final
IOPIN 432 80 Out
FLAG 208 0 out3
IOPIN 208 0 Out
FLAG 0 0 out2
IOPIN 0 0 Out
FLAG -192 0 out1
IOPIN -192 0 Out
SYMBOL voltage -480 96 R0
WINDOW 123 24 124 Left 2
WINDOW 39 0 0 Left 0
WINDOW 3 24 152 Left 2
SYMATTR Value2 AC 1
SYMATTR Value SINE(0 0.119 2k)
SYMATTR InstName Vintrare
SYMBOL etaj1 -304 80 R0
SYMATTR InstName X1
SYMBOL etaj2 -112 80 R0
SYMATTR InstName X2
SYMBOL etaj3 96 80 R0
SYMATTR InstName X3
SYMBOL etaj4 304 80 R0
SYMATTR InstName X4
TEXT 384 280 Left 2 !.ac dec 100 1 10Meg
TEXT 384 240 Left 2 !.op
TEXT 328 384 Left 2 !;tran 5m
